Version 4
SHEET 1 4728 1104
WIRE 3264 -2192 3216 -2192
WIRE 3264 -2176 3264 -2192
WIRE 3216 -2112 3216 -2192
WIRE 3408 -2112 3408 -2144
WIRE -1264 -1888 -1344 -1888
WIRE -464 -1888 -1184 -1888
WIRE -416 -1888 -464 -1888
WIRE -288 -1888 -336 -1888
WIRE 16 -1888 -288 -1888
WIRE -464 -1632 -464 -1888
WIRE -288 -1632 -288 -1888
WIRE 480 -1632 320 -1632
WIRE 768 -1632 560 -1632
WIRE -160 -1552 -224 -1552
WIRE -32 -1552 -80 -1552
WIRE 528 -1552 464 -1552
WIRE 656 -1552 608 -1552
WIRE 672 -1552 656 -1552
WIRE 768 -1552 768 -1632
WIRE 768 -1552 752 -1552
WIRE 800 -1552 768 -1552
WIRE 464 -1520 464 -1552
WIRE 608 -1520 464 -1520
WIRE 608 -1472 608 -1520
WIRE 656 -1472 656 -1552
WIRE -144 -1440 -144 -1456
WIRE -288 -1424 -288 -1552
WIRE -224 -1424 -224 -1552
WIRE -224 -1424 -288 -1424
WIRE -160 -1424 -224 -1424
WIRE 528 -1424 528 -1440
WIRE 816 -1424 816 -1440
WIRE -32 -1408 -32 -1552
WIRE -32 -1408 -96 -1408
WIRE 80 -1408 -32 -1408
WIRE 208 -1408 96 -1408
WIRE 320 -1408 320 -1632
WIRE 320 -1408 208 -1408
WIRE 368 -1408 320 -1408
WIRE 464 -1408 464 -1520
WIRE 464 -1408 448 -1408
WIRE 496 -1408 464 -1408
WIRE 768 -1408 768 -1552
WIRE 784 -1408 768 -1408
WIRE -464 -1392 -464 -1552
WIRE -320 -1392 -464 -1392
WIRE -160 -1392 -320 -1392
WIRE 80 -1392 80 -1408
WIRE 96 -1392 96 -1408
WIRE 96 -1392 80 -1392
WIRE 608 -1392 608 -1408
WIRE 608 -1392 560 -1392
WIRE 656 -1392 656 -1408
WIRE 656 -1392 608 -1392
WIRE 880 -1392 880 -1552
WIRE 880 -1392 848 -1392
WIRE 1024 -1392 880 -1392
WIRE 1920 -1392 1024 -1392
WIRE 496 -1376 464 -1376
WIRE 784 -1376 768 -1376
WIRE -144 -1360 -144 -1376
WIRE 528 -1344 528 -1360
WIRE 816 -1344 816 -1360
WIRE -320 -1280 -320 -1312
WIRE 464 -1280 464 -1376
WIRE 464 -1280 -320 -1280
WIRE 768 -1280 768 -1376
WIRE 768 -1280 464 -1280
WIRE 1024 -1280 768 -1280
WIRE 2912 -1264 2832 -1264
WIRE 3168 -1264 2976 -1264
WIRE 3312 -1264 3232 -1264
WIRE -320 -1232 -320 -1280
WIRE 2736 -1104 2720 -1104
WIRE 2832 -1104 2832 -1264
WIRE 2832 -1104 2816 -1104
WIRE 2864 -1104 2832 -1104
WIRE 2960 -1104 2944 -1104
WIRE 3088 -1104 3040 -1104
WIRE 3104 -1104 3088 -1104
WIRE 3200 -1104 3184 -1104
WIRE 3312 -1104 3312 -1264
WIRE 3312 -1104 3280 -1104
WIRE 3328 -1104 3312 -1104
WIRE 3424 -1104 3408 -1104
WIRE -1264 -1024 -1344 -1024
WIRE -464 -1024 -1184 -1024
WIRE -416 -1024 -464 -1024
WIRE -288 -1024 -336 -1024
WIRE 16 -1024 -288 -1024
WIRE -464 -768 -464 -1024
WIRE -288 -768 -288 -1024
WIRE 480 -768 320 -768
WIRE 768 -768 560 -768
WIRE -160 -688 -224 -688
WIRE -32 -688 -80 -688
WIRE 528 -688 464 -688
WIRE 656 -688 608 -688
WIRE 672 -688 656 -688
WIRE 768 -688 768 -768
WIRE 768 -688 752 -688
WIRE 800 -688 768 -688
WIRE 464 -656 464 -688
WIRE 608 -656 464 -656
WIRE 3088 -640 3088 -1104
WIRE 3088 -640 3072 -640
WIRE 608 -608 608 -656
WIRE 656 -608 656 -688
WIRE 1920 -608 1920 -1392
WIRE 2048 -608 1920 -608
WIRE 2288 -608 2128 -608
WIRE -144 -576 -144 -592
WIRE -288 -560 -288 -688
WIRE -224 -560 -224 -688
WIRE -224 -560 -288 -560
WIRE -160 -560 -224 -560
WIRE 528 -560 528 -576
WIRE 816 -560 816 -576
WIRE -32 -544 -32 -688
WIRE -32 -544 -96 -544
WIRE 80 -544 -32 -544
WIRE 224 -544 96 -544
WIRE 320 -544 320 -768
WIRE 320 -544 224 -544
WIRE 368 -544 320 -544
WIRE 464 -544 464 -656
WIRE 464 -544 448 -544
WIRE 496 -544 464 -544
WIRE 768 -544 768 -688
WIRE 784 -544 768 -544
WIRE 3088 -544 3088 -640
WIRE 3152 -544 3088 -544
WIRE 3264 -544 3232 -544
WIRE 4000 -544 3824 -544
WIRE -464 -528 -464 -688
WIRE -320 -528 -464 -528
WIRE -160 -528 -320 -528
WIRE 80 -528 80 -544
WIRE 96 -528 96 -544
WIRE 96 -528 80 -528
WIRE 608 -528 608 -544
WIRE 608 -528 560 -528
WIRE 656 -528 656 -544
WIRE 656 -528 608 -528
WIRE 880 -528 880 -688
WIRE 880 -528 848 -528
WIRE 1024 -528 880 -528
WIRE 2128 -528 1024 -528
WIRE 2288 -528 2288 -608
WIRE 2288 -528 2208 -528
WIRE 2480 -528 2336 -528
WIRE 2592 -528 2560 -528
WIRE 496 -512 464 -512
WIRE 784 -512 768 -512
WIRE -144 -496 -144 -512
WIRE 528 -480 528 -496
WIRE 816 -480 816 -496
WIRE 2416 -464 2416 -480
WIRE 3904 -464 3904 -480
WIRE 2192 -448 1920 -448
WIRE 2288 -448 2288 -528
WIRE 2288 -448 2272 -448
WIRE 2336 -448 2336 -528
WIRE 2336 -448 2288 -448
WIRE 2384 -448 2336 -448
WIRE 3168 -448 3168 -464
WIRE 3824 -448 3824 -544
WIRE 3872 -448 3824 -448
WIRE 2592 -432 2592 -528
WIRE 2592 -432 2448 -432
WIRE 2832 -432 2592 -432
WIRE 2976 -432 2832 -432
WIRE 3088 -432 3088 -544
WIRE 3088 -432 3056 -432
WIRE 3136 -432 3088 -432
WIRE 4000 -432 4000 -544
WIRE 4000 -432 3936 -432
WIRE 4112 -432 4000 -432
WIRE -320 -416 -320 -448
WIRE 464 -416 464 -512
WIRE 464 -416 -320 -416
WIRE 768 -416 768 -512
WIRE 768 -416 464 -416
WIRE 1024 -416 768 -416
WIRE 2384 -416 2336 -416
WIRE 3264 -416 3264 -544
WIRE 3264 -416 3200 -416
WIRE 3648 -416 3264 -416
WIRE 3792 -416 3728 -416
WIRE 3872 -416 3792 -416
WIRE 3136 -400 3056 -400
WIRE 2416 -384 2416 -400
WIRE 3792 -384 3792 -416
WIRE 3904 -384 3904 -400
WIRE -320 -368 -320 -416
WIRE 3168 -368 3168 -384
WIRE 2336 -320 2336 -336
WIRE -464 -176 -1376 -176
WIRE -416 -176 -464 -176
WIRE -288 -176 -336 -176
WIRE -176 -176 -288 -176
WIRE -16 -176 -96 -176
WIRE -464 80 -464 -176
WIRE -288 80 -288 -176
WIRE 480 80 320 80
WIRE 768 80 560 80
WIRE -160 160 -224 160
WIRE -32 160 -80 160
WIRE 528 160 464 160
WIRE 656 160 608 160
WIRE 672 160 656 160
WIRE 768 160 768 80
WIRE 768 160 752 160
WIRE 800 160 768 160
WIRE 464 192 464 160
WIRE 608 192 464 192
WIRE 608 240 608 192
WIRE 656 240 656 160
WIRE -144 272 -144 256
WIRE -288 288 -288 160
WIRE -224 288 -224 160
WIRE -224 288 -288 288
WIRE -160 288 -224 288
WIRE 528 288 528 272
WIRE 816 288 816 272
WIRE -32 304 -32 160
WIRE -32 304 -96 304
WIRE 80 304 -32 304
WIRE 224 304 96 304
WIRE 320 304 320 80
WIRE 320 304 224 304
WIRE 368 304 320 304
WIRE 464 304 464 192
WIRE 464 304 448 304
WIRE 496 304 464 304
WIRE 768 304 768 160
WIRE 784 304 768 304
WIRE -464 320 -464 160
WIRE -320 320 -464 320
WIRE -160 320 -320 320
WIRE 80 320 80 304
WIRE 96 320 96 304
WIRE 96 320 80 320
WIRE 608 320 608 304
WIRE 608 320 560 320
WIRE 656 320 656 304
WIRE 656 320 608 320
WIRE 880 320 880 160
WIRE 880 320 848 320
WIRE 1024 320 880 320
WIRE 1920 320 1920 -448
WIRE 1920 320 1024 320
WIRE 496 336 464 336
WIRE 784 336 768 336
WIRE -144 352 -144 336
WIRE 528 368 528 352
WIRE 816 368 816 352
WIRE -320 432 -320 400
WIRE 464 432 464 336
WIRE 464 432 -320 432
WIRE 768 432 768 336
WIRE 768 432 464 432
WIRE 1024 432 768 432
WIRE -320 480 -320 432
FLAG 3104 -2032 0
FLAG 3104 -2112 Vcc
FLAG 3216 -2032 -Vcc
FLAG -320 480 0
FLAG -144 352 -Vcc
FLAG -144 256 Vcc
FLAG 224 304 UShuntVerstärkt
FLAG 528 368 -Vcc
FLAG 816 368 -Vcc
FLAG 528 272 Vcc
FLAG 816 272 Vcc
FLAG 1024 320 Ubetrag
FLAG -16 -176 0
FLAG 3408 -2032 0
FLAG -1344 -1024 0
FLAG 3408 -2144 PWM
FLAG -320 -368 0
FLAG -144 -496 -Vcc
FLAG -144 -592 Vcc
FLAG 224 -544 UShuntVerstärkt2
FLAG 528 -480 -Vcc
FLAG 816 -480 -Vcc
FLAG 528 -576 Vcc
FLAG 816 -576 Vcc
FLAG 1024 -528 Ubetrag2
FLAG -1344 -1888 0
FLAG -320 -1232 0
FLAG -144 -1360 -Vcc
FLAG -144 -1456 Vcc
FLAG 208 -1408 UShuntVerstärkt3
FLAG 528 -1344 -Vcc
FLAG 816 -1344 -Vcc
FLAG 528 -1440 Vcc
FLAG 816 -1440 Vcc
FLAG 1024 -1392 Ubetrag3
FLAG 2416 -480 Vcc
FLAG 2416 -384 -Vcc
FLAG 2336 -320 0
FLAG 3168 -464 Vcc
FLAG 3168 -368 -Vcc
FLAG 2336 -288 Kompensation
FLAG 3792 -320 0
FLAG 3904 -480 Vcc
FLAG 3904 -384 -Vcc
FLAG 3424 -1104 Vcc
FLAG 2720 -1104 -Vcc
FLAG 3056 -320 0
FLAG -1376 -176 PWM
FLAG 16 -1024 PWM
FLAG 2832 -432 Gesamt
FLAG 3264 -2176 0
DATAFLAG -720 -176 ""
DATAFLAG -464 -96 "$"
DATAFLAG 48 304 ""
DATAFLAG -464 224 ""
DATAFLAG -288 176 ""
DATAFLAG 960 320 ""
DATAFLAG -640 -1024 ""
DATAFLAG -464 -944 "$"
DATAFLAG 48 -544 ""
DATAFLAG -464 -624 ""
DATAFLAG -288 -672 ""
DATAFLAG 960 -528 ""
DATAFLAG -640 -1888 ""
DATAFLAG -464 -1808 "$"
DATAFLAG 48 -1408 ""
DATAFLAG -464 -1488 ""
DATAFLAG -288 -1536 ""
DATAFLAG 960 -1392 ""
DATAFLAG 3424 -416 ""
DATAFLAG 2624 -432 ""
SYMBOL res -320 -192 R90
WINDOW 0 0 56 VBottom 2
WINDOW 3 32 56 VTop 2
SYMATTR InstName RShunt1
SYMATTR Value 0.02
SYMBOL ind -192 -160 R270
WINDOW 0 32 56 VTop 2
WINDOW 3 5 56 VBottom 2
SYMATTR InstName Motorspule1
SYMATTR Value 100µ
SYMATTR SpiceLine Rser=2.38
SYMBOL voltage 3104 -2128 R0
WINDOW 123 0 0 Left 0
WINDOW 39 0 0 Left 0
SYMATTR InstName V2
SYMATTR Value 15
SYMBOL voltage 3216 -2128 R0
WINDOW 123 0 0 Left 0
WINDOW 39 0 0 Left 0
SYMATTR InstName V3
SYMATTR Value 15
SYMBOL res -480 64 R0
SYMATTR InstName R_d1
SYMATTR Value 2.4k
SYMBOL res -304 64 R0
SYMATTR InstName R_d2
SYMATTR Value 2.4k
SYMBOL res -64 144 R90
WINDOW 0 0 56 VBottom 2
WINDOW 3 32 56 VTop 2
SYMATTR InstName R_d3
SYMATTR Value 30k
SYMBOL res -336 304 R0
SYMATTR InstName R_d4
SYMATTR Value 30k
SYMBOL res 464 288 R90
WINDOW 0 0 56 VBottom 2
WINDOW 3 32 56 VTop 2
SYMATTR InstName R_gr1
SYMATTR Value 20k
SYMBOL diode 624 304 R180
WINDOW 0 24 64 Left 2
WINDOW 3 24 0 Left 2
SYMATTR InstName D1
SYMATTR Value 1N4148
SYMBOL diode 640 240 R0
SYMATTR InstName D2
SYMATTR Value 1N4148
SYMBOL res 624 144 R90
WINDOW 0 0 56 VBottom 2
WINDOW 3 32 56 VTop 2
SYMATTR InstName R_gr2
SYMATTR Value 20k
SYMBOL res 576 64 R90
WINDOW 0 0 56 VBottom 2
WINDOW 3 32 56 VTop 2
SYMATTR InstName R_gr3
SYMATTR Value 20k
SYMBOL res 768 144 R90
WINDOW 0 0 56 VBottom 2
WINDOW 3 32 56 VTop 2
SYMATTR InstName R_gr4
SYMATTR Value 10k
SYMBOL res 896 144 R90
WINDOW 0 0 56 VBottom 2
WINDOW 3 32 56 VTop 2
SYMATTR InstName R_gr5
SYMATTR Value 20k
SYMBOL ind -1168 -1008 M270
WINDOW 0 32 56 VTop 2
WINDOW 3 5 56 VBottom 2
SYMATTR InstName Motorspule2
SYMATTR Value 100µ
SYMATTR SpiceLine Rser=2.38
SYMBOL res -320 -1040 R90
WINDOW 0 0 56 VBottom 2
WINDOW 3 32 56 VTop 2
SYMATTR InstName RShunt3
SYMATTR Value 0.02
SYMBOL res -480 -784 R0
SYMATTR InstName R_d5
SYMATTR Value 2.4k
SYMBOL res -304 -784 R0
SYMATTR InstName R_d6
SYMATTR Value 2.4k
SYMBOL res -64 -704 R90
WINDOW 0 0 56 VBottom 2
WINDOW 3 32 56 VTop 2
SYMATTR InstName R_d7
SYMATTR Value 30k
SYMBOL res -336 -544 R0
SYMATTR InstName R_d8
SYMATTR Value 30k
SYMBOL res 464 -560 R90
WINDOW 0 0 56 VBottom 2
WINDOW 3 32 56 VTop 2
SYMATTR InstName R_gr6
SYMATTR Value 20k
SYMBOL diode 624 -544 R180
WINDOW 0 24 64 Left 2
WINDOW 3 24 0 Left 2
SYMATTR InstName D3
SYMATTR Value 1N4148
SYMBOL diode 640 -608 R0
SYMATTR InstName D4
SYMATTR Value 1N4148
SYMBOL res 624 -704 R90
WINDOW 0 0 56 VBottom 2
WINDOW 3 32 56 VTop 2
SYMATTR InstName R_gr7
SYMATTR Value 20k
SYMBOL res 576 -784 R90
WINDOW 0 0 56 VBottom 2
WINDOW 3 32 56 VTop 2
SYMATTR InstName R_gr8
SYMATTR Value 20k
SYMBOL res 768 -704 R90
WINDOW 0 0 56 VBottom 2
WINDOW 3 32 56 VTop 2
SYMATTR InstName R_gr9
SYMATTR Value 10k
SYMBOL res 896 -704 R90
WINDOW 0 0 56 VBottom 2
WINDOW 3 32 56 VTop 2
SYMATTR InstName R_gr10
SYMATTR Value 20k
SYMBOL voltage 3408 -2128 R0
WINDOW 123 24 124 Left 2
WINDOW 39 0 0 Left 0
SYMATTR Value2 AC 1
SYMATTR InstName V5
SYMATTR Value PULSE(0 24 0 30n 30n {period * dutyCycle} {period})
SYMBOL ind -1168 -1872 M270
WINDOW 0 32 56 VTop 2
WINDOW 3 5 56 VBottom 2
SYMATTR InstName Motorspule3
SYMATTR Value 100µ
SYMATTR SpiceLine Rser=2.38
SYMBOL res -320 -1904 R90
WINDOW 0 0 56 VBottom 2
WINDOW 3 32 56 VTop 2
SYMATTR InstName RShunt2
SYMATTR Value 0.02
SYMBOL res -480 -1648 R0
SYMATTR InstName R_d9
SYMATTR Value 2.4k
SYMBOL res -304 -1648 R0
SYMATTR InstName R_d10
SYMATTR Value 2.4k
SYMBOL res -64 -1568 R90
WINDOW 0 0 56 VBottom 2
WINDOW 3 32 56 VTop 2
SYMATTR InstName R_d11
SYMATTR Value 30k
SYMBOL res -336 -1408 R0
SYMATTR InstName R_d12
SYMATTR Value 30k
SYMBOL res 464 -1424 R90
WINDOW 0 0 56 VBottom 2
WINDOW 3 32 56 VTop 2
SYMATTR InstName R_gr11
SYMATTR Value 20k
SYMBOL diode 624 -1408 R180
WINDOW 0 24 64 Left 2
WINDOW 3 24 0 Left 2
SYMATTR InstName D5
SYMATTR Value 1N4148
SYMBOL diode 640 -1472 R0
SYMATTR InstName D6
SYMATTR Value 1N4148
SYMBOL res 624 -1568 R90
WINDOW 0 0 56 VBottom 2
WINDOW 3 32 56 VTop 2
SYMATTR InstName R_gr12
SYMATTR Value 20k
SYMBOL res 576 -1648 R90
WINDOW 0 0 56 VBottom 2
WINDOW 3 32 56 VTop 2
SYMATTR InstName R_gr13
SYMATTR Value 20k
SYMBOL res 768 -1568 R90
WINDOW 0 0 56 VBottom 2
WINDOW 3 32 56 VTop 2
SYMATTR InstName R_gr14
SYMATTR Value 10k
SYMBOL res 896 -1568 R90
WINDOW 0 0 56 VBottom 2
WINDOW 3 32 56 VTop 2
SYMATTR InstName R_gr15
SYMATTR Value 20k
SYMBOL res 2576 -544 R90
WINDOW 0 0 56 VBottom 2
WINDOW 3 32 56 VTop 2
SYMATTR InstName Rfb1
SYMATTR Value 20k
SYMBOL res 2224 -544 R90
WINDOW 0 0 56 VBottom 2
WINDOW 3 32 56 VTop 2
SYMATTR InstName R1
SYMATTR Value 20k
SYMBOL res 2288 -464 R90
WINDOW 0 0 56 VBottom 2
WINDOW 3 32 56 VTop 2
SYMATTR InstName R2
SYMATTR Value 20k
SYMBOL res 2144 -624 R90
WINDOW 0 0 56 VBottom 2
WINDOW 3 32 56 VTop 2
SYMATTR InstName R3
SYMATTR Value 20k
SYMBOL res 3248 -560 R90
WINDOW 0 0 56 VBottom 2
WINDOW 3 32 56 VTop 2
SYMATTR InstName Ri1
SYMATTR Value 20k
SYMBOL res 3072 -448 R90
WINDOW 0 0 56 VBottom 2
WINDOW 3 32 56 VTop 2
SYMATTR InstName Ri2
SYMATTR Value 20k
SYMBOL res 3744 -432 R90
WINDOW 0 0 56 VBottom 2
WINDOW 3 32 56 VTop 2
SYMATTR InstName R6
SYMATTR Value 10k
SYMBOL cap 3776 -384 R0
SYMATTR InstName C1
SYMATTR Value 27n
SYMBOL NE5532 3904 -496 R0
SYMATTR InstName U11
SYMBOL NE5532 528 -1456 R0
SYMATTR InstName U8
SYMBOL NE5532 816 -1456 R0
SYMATTR InstName U9
SYMBOL NE5532 528 -592 R0
SYMATTR InstName U3
SYMBOL NE5532 816 -592 R0
SYMATTR InstName U5
SYMBOL NE5532 528 256 R0
SYMATTR InstName U2
SYMBOL NE5532 816 256 R0
SYMATTR InstName U4
SYMBOL NE5532 2416 -496 R0
SYMATTR InstName U10
SYMBOL NE5532 3168 -480 R0
SYMATTR InstName U12
SYMBOL OpAmps\\ADA4098-1 -128 -1408 R0
SYMATTR InstName U7
SYMBOL OpAmps\\ADA4098-1 -128 -544 R0
SYMATTR InstName U6
SYMBOL OpAmps\\ADA4098-1 -128 304 R0
SYMATTR InstName U1
SYMBOL res 2320 -432 R0
SYMATTR InstName R5
SYMATTR Value 5k
SYMBOL res 3312 -1088 R270
WINDOW 0 32 56 VTop 2
WINDOW 3 0 56 VBottom 2
SYMATTR InstName R4
SYMATTR Value 100k
SYMBOL res 2720 -1088 R270
WINDOW 0 32 56 VTop 2
WINDOW 3 0 56 VBottom 2
SYMATTR InstName R7
SYMATTR Value 100k
SYMBOL res 3184 -1088 R270
WINDOW 0 32 56 VTop 2
WINDOW 3 0 56 VBottom 2
SYMATTR InstName R8
SYMATTR Value 36k
SYMBOL res 2848 -1088 R270
WINDOW 0 32 56 VTop 2
WINDOW 3 0 56 VBottom 2
SYMATTR InstName R9
SYMATTR Value 36k
SYMBOL res 2944 -1088 R270
WINDOW 0 32 56 VTop 2
WINDOW 3 0 56 VBottom 2
SYMATTR InstName R10
SYMATTR Value 25k
SYMBOL res 3088 -1088 R270
WINDOW 0 32 56 VTop 2
WINDOW 3 0 56 VBottom 2
SYMATTR InstName R11
SYMATTR Value 25k
SYMBOL diode 3232 -1280 R90
WINDOW 0 0 32 VBottom 2
WINDOW 3 32 32 VTop 2
SYMATTR InstName D7
SYMATTR Value 1N4148
SYMBOL diode 2976 -1280 R90
WINDOW 0 0 32 VBottom 2
WINDOW 3 32 32 VTop 2
SYMATTR InstName D8
SYMATTR Value 1N4148
SYMBOL res 3040 -416 R0
SYMATTR InstName R12
SYMATTR Value 10k
TEXT 2920 -2064 Left 2 !.tran 5m
TEXT 2880 -1880 Left 2 ;PWM-Auslegung:\nTperiod = 1/f = 1/20kHz = 0.05ms\nTon = DutyCycle * Tperiod = 0.5 * 0.05ms = 0.025ms
TEXT -216 -32 Left 2 ;Differenzverstärker
TEXT 672 -40 Left 2 ;Vollweggleichrichter
TEXT -216 -880 Left 2 ;Differenzverstärker
TEXT 672 -888 Left 2 ;Vollweggleichrichter
TEXT 672 -1752 Left 2 ;Vollweggleichrichter
TEXT 2200 -704 Left 2 ;Summierverstärker
TEXT 3072 -672 Left 2 ;invertierender (Verstärker)
TEXT 2880 -1768 Left 2 !.param freq=20k period=1/freq dutyCycle=1.0
TEXT 1560 -1440 Left 2 ;Messpuntk
TEXT 1576 -592 Left 2 ;Messpuntk2
TEXT 1584 280 Left 2 ;Messpuntk3
TEXT 2904 -1984 Left 2 !;.ac oct 100 0.1 10000k
TEXT 3392 -792 Left 2 ;Im Schaltplan wurde an dieser Stelle ein Poti zur \nvariablen Verstärkung/Abschwächung zstzl. eingefügt
TEXT 8 -1936 Left 2 ;Phase ohne Strom
LINE Normal 3232 -560 3392 -752 2
LINE Normal 3632 -656 3632 -656 2
RECTANGLE Normal 160 576 -560 -16 1
RECTANGLE Normal 1296 576 224 -16 1
RECTANGLE Normal 160 -272 -560 -864 1
RECTANGLE Normal 1296 -272 224 -864 1
RECTANGLE Normal 160 -1136 -560 -1728 1
RECTANGLE Normal 1296 -1136 224 -1728 1
RECTANGLE Normal 2768 -224 1968 -688 2
RECTANGLE Normal 3376 -224 2976 -640 2
